<?xml version="1.0" encoding="UTF-8"?>

<!-- generated on 12/14/16 00:47:07 by SUMO netconvert Version 0.25.0
<?xml version="1.0" encoding="UTF-8"?>

<configuration xmlns:xsi="http://www.w3.org/2001/XMLSchema-instance" xsi:noNamespaceSchemaLocation="http://sumo.dlr.de/xsd/netconvertConfiguration.xsd">

    <input>
        <sumo-net-file value="C:\Users\ngsim\Documents\etFOMMSVN\Development\etFommEditor\Main\SourceCode\IntersectionModel\dummy.xml"/>
    </input>

    <output>
        <output-file value="net.net.xml"/>
    </output>

    <processing>
        <no-internal-links value="false"/>
        <no-turnarounds value="true"/>
        <offset.disable-normalization value="true"/>
        <lefthand value="false"/>
        <junctions.corner-detail value="0"/>
    </processing>

    <building_defaults>
        <default.junctions.radius value="0"/>
    </building_defaults>

</configuration>
-->

<net version="0.25" xmlns:xsi="http://www.w3.org/2001/XMLSchema-instance" xsi:noNamespaceSchemaLocation="http://sumo.dlr.de/xsd/net_file.xsd">

    <location netOffset="0.00,0.00" convBoundary="-1.01,53824.92,7.11,53831.95" origBoundary="0.00,0.00,10.00,0.00" projParameter="!"/>

    <edge id=":1_0" function="internal">
        <lane id=":1_0_0" index="0" speed="30.00" length="3.60" width="3.66" shape="1.81,53823.80 1.30,53828.56"/>
    </edge>
    <edge id=":1_1" function="internal">
        <lane id=":1_1_0" index="0" speed="30.00" length="3.36" width="3.66" shape="1.81,53823.80 1.33,53824.49 1.10,53825.06 1.12,53825.52 1.37,53825.88 1.87,53826.13 2.61,53826.27 2.78,53826.27"/>
    </edge>
    <edge id=":1_2" function="internal">
        <lane id=":1_2_0" index="0" speed="30.00" length="5.58" width="3.66" shape="1.81,53823.80 3.02,53823.67 4.01,53823.69 4.79,53823.87 5.35,53824.20 5.70,53824.68 5.83,53825.32 5.78,53825.79"/>
    </edge>
    <edge id=":1_3" function="internal">
        <lane id=":1_3_0" index="0" speed="30.00" length="14.94" width="3.66" shape="1.81,53823.80 3.40,53830.18"/>
    </edge>
    <edge id=":1_4" function="internal">
        <lane id=":1_4_0" index="0" speed="30.00" length="3.60" width="3.66" shape="-0.07,53826.86 0.17,53826.86 0.38,53826.91 0.57,53827.00 0.74,53827.14 0.89,53827.33 1.02,53827.56 1.14,53827.85 1.23,53828.18 1.30,53828.56"/>
    </edge>
    <edge id=":1_5" function="internal">
        <lane id=":1_5_0" index="0" speed="30.00" length="3.36" width="3.66" shape="-0.07,53826.86 2.81,53826.48"/>
    </edge>
    <edge id=":1_6" function="internal">
        <lane id=":1_6_0" index="0" speed="30.00" length="5.58" width="3.66" shape="-0.07,53826.86 0.75,53826.02 1.50,53825.42 2.18,53825.07 2.80,53824.97 3.36,53825.12 3.85,53825.51 4.27,53826.15 4.38,53826.41"/>
    </edge>
    <edge id=":1_7" function="internal">
        <lane id=":1_7_0" index="0" speed="30.00" length="14.94" width="3.66" shape="-0.07,53826.86 4.72,53826.39 8.41,53826.13 11.00,53826.08 12.48,53826.24 12.87,53826.61 12.15,53827.19 10.33,53827.98 7.42,53828.97 3.40,53830.18"/>
    </edge>
    <edge id=":1_32" function="internal">
        <lane id=":1_32_0" index="0" speed="30.00" length="3.51" width="3.66" shape="2.78,53826.27 3.59,53826.29 4.81,53826.21 6.28,53826.02"/>
    </edge>
    <edge id=":1_33" function="internal">
        <lane id=":1_33_0" index="0" speed="30.00" length="2.54" width="3.66" shape="5.78,53825.79 5.75,53826.11 5.45,53827.06 4.94,53828.16"/>
    </edge>
    <edge id=":1_34" function="internal">
        <lane id=":1_34_0" index="0" speed="30.00" length="3.50" width="3.66" shape="2.81,53826.48 6.28,53826.02"/>
    </edge>
    <edge id=":1_35" function="internal">
        <lane id=":1_35_0" index="0" speed="30.00" length="1.84" width="3.66" shape="4.38,53826.41 4.64,53827.03 4.94,53828.16"/>
    </edge>
    <edge id=":1_8" function="internal">
        <lane id=":1_8_0" index="0" speed="30.00" length="3.92" width="3.66" shape="1.60,53823.09 1.30,53828.56"/>
    </edge>
    <edge id=":1_9" function="internal">
        <lane id=":1_9_0" index="0" speed="30.00" length="4.62" width="3.66" shape="1.60,53823.09 6.28,53826.02"/>
    </edge>
    <edge id=":1_10" function="internal">
        <lane id=":1_10_0" index="0" speed="30.00" length="5.14" width="3.66" shape="1.60,53823.09 2.18,53823.00 2.70,53823.07 3.17,53823.31 3.60,53823.71 3.97,53824.27 4.29,53825.00 4.55,53825.89 4.77,53826.95 4.94,53828.16"/>
    </edge>
    <edge id=":1_11" function="internal">
        <lane id=":1_11_0" index="0" speed="30.00" length="8.10" width="3.66" shape="1.60,53823.09 3.20,53823.52 4.45,53824.04 5.36,53824.65 5.91,53825.35 6.10,53826.14 5.95,53827.02 5.45,53827.99 4.60,53829.04 3.40,53830.18"/>
    </edge>
    <edge id=":1_12" function="internal">
        <lane id=":1_12_0" index="0" speed="30.00" length="3.92" width="3.66" shape="2.61,53826.60 1.30,53828.56"/>
    </edge>
    <edge id=":1_13" function="internal">
        <lane id=":1_13_0" index="0" speed="30.00" length="4.62" width="3.66" shape="2.61,53826.60 6.28,53826.02"/>
    </edge>
    <edge id=":1_14" function="internal">
        <lane id=":1_14_0" index="0" speed="30.00" length="5.14" width="3.66" shape="2.61,53826.60 3.06,53826.50 3.45,53826.47 3.80,53826.51 4.10,53826.61 4.36,53826.79 4.58,53827.03 4.74,53827.34 4.86,53827.72 4.94,53828.16"/>
    </edge>
    <edge id=":1_15" function="internal">
        <lane id=":1_15_0" index="0" speed="30.00" length="8.10" width="3.66" shape="2.61,53826.60 3.41,53826.85 4.03,53827.13 4.47,53827.45 4.73,53827.81 4.82,53828.20 4.73,53828.64 4.46,53829.12 4.02,53829.63 3.40,53830.18"/>
    </edge>
    <edge id=":1_16" function="internal">
        <lane id=":1_16_0" index="0" speed="30.00" length="3.87" width="3.66" shape="4.87,53833.64 4.94,53828.16"/>
    </edge>
    <edge id=":1_17" function="internal">
        <lane id=":1_17_0" index="0" speed="30.00" length="3.28" width="3.66" shape="4.87,53833.64 3.40,53830.18"/>
    </edge>
    <edge id=":1_18" function="internal">
        <lane id=":1_18_0" index="0" speed="30.00" length="6.20" width="3.66" shape="4.87,53833.64 4.29,53833.66 3.75,53833.54 3.26,53833.26 2.82,53832.84 2.42,53832.28 2.07,53831.57 1.77,53830.71 1.51,53829.71 1.30,53828.56"/>
    </edge>
    <edge id=":1_19" function="internal">
        <lane id=":1_19_0" index="0" speed="30.00" length="8.46" width="3.66" shape="4.87,53833.64 3.52,53832.52 2.55,53831.46 1.96,53830.48 1.74,53829.56 1.89,53828.72 2.43,53827.94 3.33,53827.23 4.62,53826.59 6.28,53826.02"/>
    </edge>
    <edge id=":1_20" function="internal">
        <lane id=":1_20_0" index="0" speed="30.00" length="3.87" width="3.66" shape="6.17,53829.74 5.94,53829.75 5.74,53829.72 5.57,53829.64 5.41,53829.51 5.27,53829.33 5.16,53829.11 5.06,53828.84 4.99,53828.53 4.94,53828.16"/>
    </edge>
    <edge id=":1_21" function="internal">
        <lane id=":1_21_0" index="0" speed="30.00" length="3.28" width="3.66" shape="6.17,53829.74 3.40,53830.18"/>
    </edge>
    <edge id=":1_22" function="internal">
        <lane id=":1_22_0" index="0" speed="30.00" length="6.20" width="3.66" shape="6.17,53829.74 5.20,53829.87 4.34,53829.93 3.59,53829.92 2.94,53829.86 2.40,53829.72 1.97,53829.53 1.64,53829.27 1.42,53828.94 1.30,53828.56"/>
    </edge>
    <edge id=":1_23" function="internal">
        <lane id=":1_23_0" index="0" speed="30.00" length="8.46" width="3.66" shape="6.17,53829.74 5.44,53829.31 4.91,53828.88 4.55,53828.45 4.38,53828.03 4.39,53827.62 4.59,53827.21 4.97,53826.81 5.53,53826.42 6.28,53826.02"/>
    </edge>
    <edge id=":1_24" function="internal">
        <lane id=":1_24_0" index="0" speed="30.00" length="1.63" width="3.66" shape="8.40,53826.62 6.28,53826.02"/>
    </edge>
    <edge id=":1_25" function="internal">
        <lane id=":1_25_0" index="0" speed="30.00" length="3.31" width="3.66" shape="8.40,53826.62 4.94,53828.16"/>
    </edge>
    <edge id=":1_26" function="internal">
        <lane id=":1_26_0" index="0" speed="30.00" length="4.49" width="3.66" shape="8.40,53826.62 8.40,53827.07 8.26,53827.50 7.99,53827.92 7.57,53828.33 7.01,53828.73 6.32,53829.11 5.48,53829.48 4.51,53829.84 3.40,53830.18"/>
    </edge>
    <edge id=":1_27" function="internal">
        <lane id=":1_27_0" index="0" speed="30.00" length="4.38" width="3.66" shape="8.40,53826.62 7.99,53828.24 7.49,53829.51 6.89,53830.43 6.20,53830.99 5.80,53831.10"/>
    </edge>
    <edge id=":1_28" function="internal">
        <lane id=":1_28_0" index="0" speed="30.00" length="1.63" width="3.66" shape="4.51,53825.37 4.56,53825.56 4.64,53825.72 4.77,53825.85 4.93,53825.95 5.12,53826.02 5.22,53826.04"/>
    </edge>
    <edge id=":1_29" function="internal">
        <lane id=":1_29_0" index="0" speed="30.00" length="3.31" width="3.66" shape="4.51,53825.37 4.94,53828.16"/>
    </edge>
    <edge id=":1_30" function="internal">
        <lane id=":1_30_0" index="0" speed="30.00" length="4.49" width="3.66" shape="4.51,53825.37 4.63,53826.28 4.68,53827.10 4.68,53827.76"/>
    </edge>
    <edge id=":1_31" function="internal">
        <lane id=":1_31_0" index="0" speed="30.00" length="4.38" width="3.66" shape="4.51,53825.37 4.78,53826.36 4.90,53827.19 4.85,53827.86 4.65,53828.37 4.48,53828.55"/>
    </edge>
    <edge id=":1_36" function="internal">
        <lane id=":1_36_0" index="0" speed="30.00" length="5.43" width="3.66" shape="5.80,53831.10 5.41,53831.21 4.53,53831.07 3.55,53830.58 2.47,53829.74 1.30,53828.56"/>
    </edge>
    <edge id=":1_37" function="internal">
        <lane id=":1_37_0" index="0" speed="30.00" length="1.07" width="3.66" shape="5.22,53826.04 5.36,53826.06 5.63,53826.08 5.94,53826.07 6.28,53826.02"/>
    </edge>
    <edge id=":1_38" function="internal">
        <lane id=":1_38_0" index="0" speed="30.00" length="2.93" width="3.66" shape="4.68,53827.76 4.68,53827.82 4.62,53828.45 4.49,53828.98 4.31,53829.42 4.07,53829.77 3.76,53830.02 3.40,53830.18"/>
    </edge>
    <edge id=":1_39" function="internal">
        <lane id=":1_39_0" index="0" speed="30.00" length="3.34" width="3.66" shape="4.48,53828.55 4.30,53828.73 3.78,53828.92 3.11,53828.96 2.28,53828.84 1.30,53828.56"/>
    </edge>
    <edge id=":2_0" function="internal">
        <lane id=":2_0_0" index="0" speed="30.00" length="10.79" width="3.66" shape="5.18,53830.44 4.53,53831.97 3.84,53833.13 3.11,53833.94 2.34,53834.38 1.53,53834.47 0.68,53834.20 -0.20,53833.57 -1.13,53832.58 -2.09,53831.23"/>
    </edge>
    <edge id=":2.1.2_0" function="internal">
        <lane id=":2.1.2_0_0" index="0" speed="30.00" length="4.44" width="3.66" shape="-2.34,53828.95 1.81,53823.80"/>
        <lane id=":2.1.2_0_1" index="1" speed="30.00" length="4.44" width="3.66" shape="-2.34,53828.95 -2.37,53828.57 -2.37,53828.23 -2.34,53827.93 -2.29,53827.67 -2.21,53827.46 -2.11,53827.29 -1.97,53827.16 -1.81,53827.08 -1.62,53827.03"/>
    </edge>
    <edge id=":3_0" function="internal">
        <lane id=":3_0_0" index="0" speed="30.00" length="10.79" width="3.66" shape="6.28,53826.02 7.83,53826.61 9.03,53827.25 9.86,53827.94 10.34,53828.69 10.47,53829.49 10.23,53830.35 9.64,53831.26 8.69,53832.23 7.39,53833.25"/>
    </edge>
    <edge id=":3.1.3_0" function="internal">
        <lane id=":3.1.3_0_0" index="0" speed="30.00" length="2.66" width="3.66" shape="4.09,53833.76 4.88,53833.64"/>
        <lane id=":3.1.3_0_1" index="1" speed="30.00" length="2.66" width="3.66" shape="4.09,53833.76 6.17,53829.74"/>
    </edge>
    <edge id=":4_0" function="internal">
        <lane id=":4_0_0" index="0" speed="30.00" length="10.79" width="3.66" shape="0.96,53826.32 1.54,53824.77 2.18,53823.58 2.87,53822.74 3.62,53822.26 4.42,53822.14 5.28,53822.37 6.19,53822.96 7.16,53823.91 8.19,53825.21"/>
    </edge>
    <edge id=":4.1.2_0" function="internal">
        <lane id=":4.1.2_0_0" index="0" speed="30.00" length="2.71" width="3.66" shape="8.53,53827.48 8.40,53826.62"/>
        <lane id=":4.1.2_0_1" index="1" speed="30.00" length="2.71" width="3.66" shape="8.53,53827.48 4.51,53825.37"/>
    </edge>
    <edge id=":5_0" function="internal">
        <lane id=":5_0_0" index="0" speed="30.00" length="10.79" width="3.66" shape="0.51,53831.01 -1.11,53830.63 -2.37,53830.15 -3.29,53829.57 -3.86,53828.89 -4.09,53828.11 -3.97,53827.23 -3.50,53826.24 -2.68,53825.16 -1.52,53823.98"/>
    </edge>
    <edge id=":5.1.2_0" function="internal">
        <lane id=":5.1.2_0_0" index="0" speed="30.00" length="1.83" width="3.66" shape="1.35,53823.16 1.35,53823.16"/>
        <lane id=":5.1.2_0_1" index="1" speed="30.00" length="1.83" width="3.66" shape="1.35,53823.16 2.36,53826.67"/>
    </edge>

    <edge id="0" from="1" to="2" priority="0">
        <lane id="0_0" index="0" speed="30.00" length="2.29" width="3.66" shape="4.94,53828.16 5.18,53830.44"/>
    </edge>
    <edge id="1" from="1" to="3" priority="0">
        <lane id="1_0" index="0" speed="30.00" length="0.00" width="3.66" shape="6.28,53826.02 6.28,53826.02"/>
    </edge>
    <edge id="2" from="1" to="4" priority="0">
        <lane id="2_0" index="0" speed="30.00" length="2.26" width="3.66" shape="1.30,53828.56 0.96,53826.32"/>
    </edge>
    <edge id="3" from="1" to="5" priority="0">
        <lane id="3_0" index="0" speed="30.00" length="3.01" width="3.66" shape="3.40,53830.18 0.51,53831.01"/>
    </edge>
    <edge id="4.0" from="2" to="2.1.2" priority="0" shape="-0.27,53831.03 -0.52,53828.75">
        <lane id="4.0_0" index="0" speed="30.00" length="2.29" width="3.66" shape="-2.09,53831.23 -2.34,53828.95"/>
    </edge>
    <edge id="4.2" from="2.1.2" to="1" priority="0" shape="-1.43,53828.85 3.12,53828.36 3.12,53828.36">
        <lane id="4.2_0" index="0" speed="30.00" length="0.78" width="3.66" shape="1.81,53823.80 1.81,53823.80"/>
        <lane id="4.2_1" index="1" speed="30.00" length="0.78" width="3.66" shape="-1.62,53827.03 -0.07,53826.86"/>
    </edge>
    <edge id="5.0" from="3" to="3.1.3" priority="0" shape="7.11,53831.45 3.81,53831.95">
        <lane id="5.0_0" index="0" speed="30.00" length="3.34" width="3.66" shape="7.39,53833.25 4.09,53833.76"/>
    </edge>
    <edge id="5.3" from="3.1.3" to="1" priority="0">
        <lane id="5.3_0" index="0" speed="30.00" length="0.00" width="3.66" shape="4.88,53833.64 4.87,53833.64"/>
        <lane id="5.3_1" index="1" speed="30.00" length="0.00" width="3.66" shape="6.17,53829.74 6.17,53829.74"/>
    </edge>
    <edge id="6.0" from="4" to="4.1.2" priority="0" shape="6.38,53825.49 6.73,53827.76">
        <lane id="6.0_0" index="0" speed="30.00" length="2.29" width="3.66" shape="8.19,53825.21 8.53,53827.48"/>
    </edge>
    <edge id="6.2" from="4.1.2" to="1" priority="0">
        <lane id="6.2_0" index="0" speed="30.00" length="0.00" width="3.66" shape="8.40,53826.62 8.40,53826.62"/>
        <lane id="6.2_1" index="1" speed="30.00" length="0.00" width="3.66" shape="4.51,53825.37 4.51,53825.37"/>
    </edge>
    <edge id="7.0" from="5" to="5.1.2" priority="0" shape="-1.01,53825.74 1.86,53824.92">
        <lane id="7.0_0" index="0" speed="30.00" length="2.99" width="3.66" shape="-1.52,53823.98 1.35,53823.16"/>
    </edge>
    <edge id="7.2" from="5.1.2" to="1" priority="0">
        <lane id="7.2_0" index="0" speed="30.00" length="0.26" width="3.66" shape="1.35,53823.16 1.60,53823.09"/>
        <lane id="7.2_1" index="1" speed="30.00" length="0.26" width="3.66" shape="2.36,53826.67 2.61,53826.60"/>
    </edge>

    <junction id="1" type="priority" x="3.12" y="53828.36" incLanes="4.2_0 4.2_1 7.2_0 7.2_1 5.3_0 5.3_1 6.2_0 6.2_1" intLanes=":1_0_0 :1_32_0 :1_33_0 :1_3_0 :1_4_0 :1_34_0 :1_35_0 :1_7_0 :1_8_0 :1_9_0 :1_10_0 :1_11_0 :1_12_0 :1_13_0 :1_14_0 :1_15_0 :1_16_0 :1_17_0 :1_18_0 :1_19_0 :1_20_0 :1_21_0 :1_22_0 :1_23_0 :1_24_0 :1_25_0 :1_26_0 :1_36_0 :1_37_0 :1_29_0 :1_38_0 :1_39_0" shape="-4.15,53829.14 6.76,53827.97 4.23,53835.59 2.56,53824.74 10.35,53827.25 -0.50,53828.92 1.10,53821.33 4.13,53831.88" radius="0.00">
        <request index="0" response="00000000000000000000000000000000" foes="10001000010001000001000100010000" cont="0"/>
        <request index="1" response="01110111000000000000000000010000" foes="01110111110011000011001100110000" cont="1"/>
        <request index="2" response="01100110001100110111011100000000" foes="01100110001100110111011101000000" cont="1"/>
        <request index="3" response="01000100000000000000000000000000" foes="01000100001000101111111110000000" cont="0"/>
        <request index="4" response="00000000000000000000000000000001" foes="10001000010001000001000100000001" cont="0"/>
        <request index="5" response="01110111000000000000000000000010" foes="01110111110011000011001100000010" cont="1"/>
        <request index="6" response="01100110001100110111011100000100" foes="01100110001100110111011100000100" cont="1"/>
        <request index="7" response="01000100000000000000000000001000" foes="01000100001000101111111100001000" cont="0"/>
        <request index="8" response="00000000000000000000000010111011" foes="10001000010001000001000011111111" cont="0"/>
        <request index="9" response="01110111000000000000000010101010" foes="01110111110011000010000011101110" cont="0"/>
        <request index="10" response="01100110001100110010000010001000" foes="01100110001100110110000011001100" cont="0"/>
        <request index="11" response="01000100001000100000000010001000" foes="01000100001000101000000010001000" cont="0"/>
        <request index="12" response="00000000000000000000011110111011" foes="10001000010001000000011111111111" cont="0"/>
        <request index="13" response="01110111000000000000001010101010" foes="01110111110011000000001011101110" cont="0"/>
        <request index="14" response="01100110001100110000010010001000" foes="01100110001100110000010011001100" cont="0"/>
        <request index="15" response="01000100001000100000100010001000" foes="01000100001000100000100010001000" cont="0"/>
        <request index="16" response="00100010000000000000000000000000" foes="00100010000100000100010001000100" cont="0"/>
        <request index="17" response="01100110000000000000000010001000" foes="01100110001000001100110011001100" cont="0"/>
        <request index="18" response="01100110001000000011001100110011" foes="11101110011000000011001100110011" cont="0"/>
        <request index="19" response="00010001000000000010001000100010" foes="00010001100000000010001000100010" cont="0"/>
        <request index="20" response="00100010000001110000000000000000" foes="00100010000001110100010001000100" cont="0"/>
        <request index="21" response="01100110000000100000000010001000" foes="01100110000000101100110011001100" cont="0"/>
        <request index="22" response="01100110000001000011001100110011" foes="11101110000001000011001100110011" cont="0"/>
        <request index="23" response="00010001000010000010001000100010" foes="00010001000010000010001000100010" cont="0"/>
        <request index="24" response="00000000000000000000000000000000" foes="00010000100010000010001000100010" cont="0"/>
        <request index="25" response="00000000000000000000000000000000" foes="00100000011101110110011001100110" cont="0"/>
        <request index="26" response="00100000000000000000000000000000" foes="01100000011001101110111011101110" cont="0"/>
        <request index="27" response="00000000010001000001000100010001" foes="10000000010001000001000100010001" cont="1"/>
        <request index="28" response="00000111000000000000000000000000" foes="00000111100010000010001000100010" cont="1"/>
        <request index="29" response="00000010000000000000000000000000" foes="00000010011101110110011001100110" cont="0"/>
        <request index="30" response="00000100000000000000000000000000" foes="00000100011001101110111011101110" cont="1"/>
        <request index="31" response="00001000010001000001000100010001" foes="00001000010001000001000100010001" cont="1"/>
    </junction>
    <junction id="2" type="priority" x="3.36" y="53830.64" incLanes="0_0" intLanes=":2_0_0" shape="-0.27,53831.03 -3.91,53831.42 7.00,53830.25 3.36,53830.64" radius="0.00">
        <request index="0" response="0" foes="0" cont="0"/>
    </junction>
    <junction id="2.1.2" type="priority" x="3.12" y="53828.36" incLanes="4.0_0" intLanes=":2.1.2_0_0 :2.1.2_0_1" shape="-4.15,53829.14 -0.52,53828.75 -1.43,53828.85 -2.21,53821.58" radius="0.00">
        <request index="0" response="00" foes="00" cont="0"/>
        <request index="1" response="00" foes="00" cont="0"/>
    </junction>
    <junction id="3" type="priority" x="6.56" y="53827.83" incLanes="1_0" intLanes=":3_0_0" shape="7.11,53831.45 7.67,53835.06 6.00,53824.22 6.56,53827.83" radius="0.00">
        <request index="0" response="0" foes="0" cont="0"/>
    </junction>
    <junction id="3.1.3" type="priority" x="3.26" y="53828.34" incLanes="5.0_0" intLanes=":3.1.3_0_0 :3.1.3_0_1" shape="4.37,53835.57 3.81,53831.95 3.26,53828.34 4.37,53835.57" radius="0.00">
        <request index="0" response="00" foes="00" cont="0"/>
        <request index="1" response="00" foes="00" cont="0"/>
    </junction>
    <junction id="4" type="priority" x="2.76" y="53826.05" incLanes="2_0" intLanes=":4_0_0" shape="6.38,53825.49 9.99,53824.93 -0.85,53826.60 2.76,53826.05" radius="0.00">
        <request index="0" response="0" foes="0" cont="0"/>
    </junction>
    <junction id="4.1.2" type="priority" x="3.11" y="53828.31" incLanes="6.0_0" intLanes=":4.1.2_0_0 :4.1.2_0_1" shape="3.11,53828.31 10.34,53827.20 6.73,53827.76" radius="0.00">
        <request index="0" response="00" foes="00" cont="0"/>
        <request index="1" response="00" foes="00" cont="0"/>
    </junction>
    <junction id="5" type="priority" x="0.00" y="53829.26" incLanes="3_0" intLanes=":5_0_0" shape="-1.01,53825.74 -2.02,53822.23 1.01,53832.77 0.00,53829.26" radius="0.00">
        <request index="0" response="0" foes="0" cont="0"/>
    </junction>
    <junction id="5.1.2" type="priority" x="2.87" y="53828.43" incLanes="7.0_0" intLanes=":5.1.2_0_0 :5.1.2_0_1" shape="2.87,53828.43 0.85,53821.40 1.86,53824.92" radius="0.00">
        <request index="0" response="00" foes="00" cont="0"/>
        <request index="1" response="00" foes="00" cont="0"/>
    </junction>

    <junction id=":1_32_0" type="internal" x="2.78" y="53826.27" incLanes=":1_1_0 6.2_0 6.2_1" intLanes=":1_4_0 :1_8_0 :1_9_0 :1_12_0 :1_13_0 :1_18_0 :1_19_0 :1_22_0 :1_23_0 :1_24_0 :1_25_0 :1_26_0 :1_28_0 :1_29_0 :1_30_0"/>
    <junction id=":1_33_0" type="internal" x="5.78" y="53825.79" incLanes=":1_2_0 5.3_0 5.3_1 6.2_0 6.2_1 7.2_0 7.2_1" intLanes=":1_8_0 :1_9_0 :1_10_0 :1_12_0 :1_13_0 :1_14_0 :1_16_0 :1_17_0 :1_20_0 :1_21_0 :1_25_0 :1_26_0 :1_29_0 :1_30_0"/>
    <junction id=":1_34_0" type="internal" x="2.81" y="53826.48" incLanes=":1_5_0 6.2_0 6.2_1" intLanes=":1_8_0 :1_9_0 :1_12_0 :1_13_0 :1_18_0 :1_19_0 :1_22_0 :1_23_0 :1_24_0 :1_25_0 :1_26_0 :1_28_0 :1_29_0 :1_30_0"/>
    <junction id=":1_35_0" type="internal" x="4.38" y="53826.41" incLanes=":1_6_0 5.3_0 5.3_1 6.2_0 6.2_1 7.2_0 7.2_1" intLanes=":1_8_0 :1_9_0 :1_10_0 :1_12_0 :1_13_0 :1_14_0 :1_16_0 :1_17_0 :1_20_0 :1_21_0 :1_25_0 :1_26_0 :1_29_0 :1_30_0"/>
    <junction id=":1_36_0" type="internal" x="5.80" y="53831.10" incLanes=":1_27_0 4.2_0 4.2_1 5.3_0 5.3_1 7.2_0 7.2_1" intLanes=":1_0_0 :1_4_0 :1_8_0 :1_12_0 :1_18_0 :1_22_0"/>
    <junction id=":1_37_0" type="internal" x="5.22" y="53826.04" incLanes=":1_28_0 6.2_0" intLanes=":1_1_0 :1_5_0 :1_9_0 :1_13_0 :1_19_0 :1_23_0 :1_25_0 :1_26_0"/>
    <junction id=":1_38_0" type="internal" x="4.68" y="53827.76" incLanes=":1_30_0" intLanes=":1_1_0 :1_2_0 :1_3_0 :1_5_0 :1_6_0 :1_7_0 :1_9_0 :1_10_0 :1_11_0 :1_13_0 :1_14_0 :1_15_0 :1_17_0 :1_18_0 :1_21_0 :1_22_0"/>
    <junction id=":1_39_0" type="internal" x="4.48" y="53828.55" incLanes=":1_31_0 4.2_0 4.2_1 5.3_0 5.3_1 7.2_0 7.2_1" intLanes=":1_0_0 :1_4_0 :1_8_0 :1_12_0 :1_18_0 :1_22_0"/>

    <connection from="0" to="4.0" fromLane="0" toLane="0" via=":2_0_0" dir="t" state="M"/>
    <connection from="1" to="5.0" fromLane="0" toLane="0" via=":3_0_0" dir="t" state="M"/>
    <connection from="2" to="6.0" fromLane="0" toLane="0" via=":4_0_0" dir="t" state="M"/>
    <connection from="3" to="7.0" fromLane="0" toLane="0" via=":5_0_0" dir="t" state="M"/>
    <connection from="4.0" to="4.2" fromLane="0" toLane="0" via=":2.1.2_0_0" dir="l" state="M"/>
    <connection from="4.0" to="4.2" fromLane="0" toLane="1" via=":2.1.2_0_1" dir="l" state="M"/>
    <connection from="4.2" to="2" fromLane="0" toLane="0" via=":1_0_0" dir="s" state="M"/>
    <connection from="4.2" to="1" fromLane="0" toLane="0" via=":1_1_0" dir="L" state="m"/>
    <connection from="4.2" to="0" fromLane="0" toLane="0" via=":1_2_0" dir="t" state="m"/>
    <connection from="4.2" to="3" fromLane="0" toLane="0" via=":1_3_0" dir="R" state="m"/>
    <connection from="4.2" to="2" fromLane="1" toLane="0" via=":1_4_0" dir="s" state="m"/>
    <connection from="4.2" to="1" fromLane="1" toLane="0" via=":1_5_0" dir="L" state="m"/>
    <connection from="4.2" to="0" fromLane="1" toLane="0" via=":1_6_0" dir="t" state="m"/>
    <connection from="4.2" to="3" fromLane="1" toLane="0" via=":1_7_0" dir="R" state="m"/>
    <connection from="5.0" to="5.3" fromLane="0" toLane="0" via=":3.1.3_0_0" dir="s" state="M"/>
    <connection from="5.0" to="5.3" fromLane="0" toLane="1" via=":3.1.3_0_1" dir="s" state="M"/>
    <connection from="5.3" to="0" fromLane="0" toLane="0" via=":1_16_0" dir="r" state="m"/>
    <connection from="5.3" to="3" fromLane="0" toLane="0" via=":1_17_0" dir="s" state="m"/>
    <connection from="5.3" to="2" fromLane="0" toLane="0" via=":1_18_0" dir="l" state="m"/>
    <connection from="5.3" to="1" fromLane="0" toLane="0" via=":1_19_0" dir="t" state="m"/>
    <connection from="5.3" to="0" fromLane="1" toLane="0" via=":1_20_0" dir="r" state="m"/>
    <connection from="5.3" to="3" fromLane="1" toLane="0" via=":1_21_0" dir="s" state="m"/>
    <connection from="5.3" to="2" fromLane="1" toLane="0" via=":1_22_0" dir="l" state="m"/>
    <connection from="5.3" to="1" fromLane="1" toLane="0" via=":1_23_0" dir="t" state="m"/>
    <connection from="6.0" to="6.2" fromLane="0" toLane="0" via=":4.1.2_0_0" dir="s" state="M"/>
    <connection from="6.0" to="6.2" fromLane="0" toLane="1" via=":4.1.2_0_1" dir="s" state="M"/>
    <connection from="6.2" to="1" fromLane="0" toLane="0" via=":1_24_0" dir="r" state="M"/>
    <connection from="6.2" to="0" fromLane="0" toLane="0" via=":1_25_0" dir="s" state="M"/>
    <connection from="6.2" to="3" fromLane="0" toLane="0" via=":1_26_0" dir="l" state="M"/>
    <connection from="6.2" to="2" fromLane="0" toLane="0" via=":1_27_0" dir="t" state="m"/>
    <connection from="6.2" to="1" fromLane="1" toLane="0" via=":1_28_0" dir="r" state="m"/>
    <connection from="6.2" to="0" fromLane="1" toLane="0" via=":1_29_0" dir="s" state="m"/>
    <connection from="6.2" to="3" fromLane="1" toLane="0" via=":1_30_0" dir="l" state="m"/>
    <connection from="6.2" to="2" fromLane="1" toLane="0" via=":1_31_0" dir="t" state="m"/>
    <connection from="7.0" to="7.2" fromLane="0" toLane="0" via=":5.1.2_0_0" dir="s" state="M"/>
    <connection from="7.0" to="7.2" fromLane="0" toLane="1" via=":5.1.2_0_1" dir="s" state="M"/>
    <connection from="7.2" to="2" fromLane="0" toLane="0" via=":1_8_0" dir="r" state="m"/>
    <connection from="7.2" to="1" fromLane="0" toLane="0" via=":1_9_0" dir="s" state="m"/>
    <connection from="7.2" to="0" fromLane="0" toLane="0" via=":1_10_0" dir="l" state="m"/>
    <connection from="7.2" to="3" fromLane="0" toLane="0" via=":1_11_0" dir="t" state="m"/>
    <connection from="7.2" to="2" fromLane="1" toLane="0" via=":1_12_0" dir="r" state="m"/>
    <connection from="7.2" to="1" fromLane="1" toLane="0" via=":1_13_0" dir="s" state="m"/>
    <connection from="7.2" to="0" fromLane="1" toLane="0" via=":1_14_0" dir="l" state="m"/>
    <connection from="7.2" to="3" fromLane="1" toLane="0" via=":1_15_0" dir="t" state="m"/>

    <connection from=":1_0" to="2" fromLane="0" toLane="0" dir="s" state="M"/>
    <connection from=":1_1" to="1" fromLane="0" toLane="0" via=":1_32_0" dir="s" state="m"/>
    <connection from=":1_32" to="1" fromLane="0" toLane="0" dir="s" state="M"/>
    <connection from=":1_2" to="0" fromLane="0" toLane="0" via=":1_33_0" dir="s" state="m"/>
    <connection from=":1_33" to="0" fromLane="0" toLane="0" dir="s" state="M"/>
    <connection from=":1_3" to="3" fromLane="0" toLane="0" dir="s" state="M"/>
    <connection from=":1_4" to="2" fromLane="0" toLane="0" dir="s" state="M"/>
    <connection from=":1_5" to="1" fromLane="0" toLane="0" via=":1_34_0" dir="s" state="m"/>
    <connection from=":1_34" to="1" fromLane="0" toLane="0" dir="s" state="M"/>
    <connection from=":1_6" to="0" fromLane="0" toLane="0" via=":1_35_0" dir="s" state="m"/>
    <connection from=":1_35" to="0" fromLane="0" toLane="0" dir="s" state="M"/>
    <connection from=":1_7" to="3" fromLane="0" toLane="0" dir="s" state="M"/>
    <connection from=":1_8" to="2" fromLane="0" toLane="0" dir="s" state="M"/>
    <connection from=":1_9" to="1" fromLane="0" toLane="0" dir="s" state="M"/>
    <connection from=":1_10" to="0" fromLane="0" toLane="0" dir="s" state="M"/>
    <connection from=":1_11" to="3" fromLane="0" toLane="0" dir="s" state="M"/>
    <connection from=":1_12" to="2" fromLane="0" toLane="0" dir="s" state="M"/>
    <connection from=":1_13" to="1" fromLane="0" toLane="0" dir="s" state="M"/>
    <connection from=":1_14" to="0" fromLane="0" toLane="0" dir="s" state="M"/>
    <connection from=":1_15" to="3" fromLane="0" toLane="0" dir="s" state="M"/>
    <connection from=":1_16" to="0" fromLane="0" toLane="0" dir="s" state="M"/>
    <connection from=":1_17" to="3" fromLane="0" toLane="0" dir="s" state="M"/>
    <connection from=":1_18" to="2" fromLane="0" toLane="0" dir="s" state="M"/>
    <connection from=":1_19" to="1" fromLane="0" toLane="0" dir="s" state="M"/>
    <connection from=":1_20" to="0" fromLane="0" toLane="0" dir="s" state="M"/>
    <connection from=":1_21" to="3" fromLane="0" toLane="0" dir="s" state="M"/>